Circuit: * C:\Users\aydin\OneDrive\Masaüstü\Radar Projesi\During the school\circuit simulation\4_th_Butterwoth_lowpass_filter.asc

Direct Newton iteration failed to find .op point.  (Use ".option noopiter" to skip.)
Starting Gmin stepping
Gmin = 10
Gmin = 1.07374
vernier = 0.5
vernier = 0.25
vernier = 0.125
vernier = 0.0625
vernier = 0.03125
Gmin = 1.0412
vernier = 0.015625
vernier = 0.0078125
Gmin = 1.0132
vernier = 0.00390625
vernier = 0.00195313
Gmin = 1.00827
vernier = 0.00260417
vernier = 0.00130208
Gmin = 1.00515
vernier = 0.000651042
vernier = 0.000868055
vernier = 0.000434028
Gmin = 1.00434
vernier = 0.000578703
vernier = 0.000434027
Gmin = 1.00339
Gmin = 0
Gmin stepping failed

Starting source stepping with srcstepmethod=0
Source Step = 3.0303%
Source Step = 33.3333%
Source Step = 63.6364%
Source Step = 93.9394%
Source stepping succeeded in finding the operating point.


Date: Mon Sep 16 19:51:18 2024
Total elapsed time: 0.161 seconds.

tnom = 27
temp = 27
method = trap
totiter = 4839
traniter = 0
tranpoints = 0
accept = 0
rejected = 0
matrix size = 45
fillins = 39
solver = Normal
Matrix Compiler1:     225 opcodes
Matrix Compiler2: off  [0.3]/0.5/0.6

