Circuit: * C:\Users\aydin\OneDrive\Masaüstü\Radar Bitirme Projesi\circuit simulation\rf_power_amplifer.asc

Direct Newton iteration for .op point succeeded.

Date: Thu Jun 13 10:25:22 2024
Total elapsed time: 0.075 seconds.

tnom = 27
temp = 27
method = trap
totiter = 5
traniter = 0
tranpoints = 0
accept = 0
rejected = 0
matrix size = 11
fillins = 2
solver = Normal
Matrix Compiler1:      41 opcodes
Matrix Compiler2: 861 bytes object code size
